# generated using pymatgen
data_LaNiC2
_symmetry_space_group_name_H-M   'P 1'
_cell_length_a   3.95600000
_cell_length_b   4.56300000
_cell_length_c   6.20400000
_cell_angle_alpha   90.00000000
_cell_angle_beta   90.00000000
_cell_angle_gamma   90.00000000
_symmetry_Int_Tables_number   1
_chemical_formula_structural   LaNiC2
_chemical_formula_sum   'La2 Ni2 C4'
_cell_volume   111.98981851
_cell_formula_units_Z   2
loop_
 _symmetry_equiv_pos_site_id
 _symmetry_equiv_pos_as_xyz
  1  'x, y, z'
loop_
 _atom_type_symbol
 _atom_type_oxidation_number
  La0+  0.0
  Ni0+  0.0
  C0+  0.0
loop_
 _atom_site_type_symbol
 _atom_site_label
 _atom_site_symmetry_multiplicity
 _atom_site_fract_x
 _atom_site_fract_y
 _atom_site_fract_z
 _atom_site_occupancy
  La0+  La1  1  0.00000000  0.00000000  0.00000000  1.0
  La0+  La1  1  0.00000000  0.50000000  0.50000000  1.0
  Ni0+  Ni1  1  0.50000000  0.00000000  0.61500000  1.0
  Ni0+  Ni1  1  0.50000000  0.50000000  0.11500000  1.0
  C0+  C1  1  0.50000000  0.84500000  0.30000000  1.0
  C0+  C1  1  0.50000000  0.15500000  0.30000000  1.0
  C0+  C1  1  0.50000000  0.34500000  0.80000000  1.0
  C0+  C1  1  0.50000000  0.65500000  0.80000000  1.0
