# generated using pymatgen
data_SrPrBi2(S2F)2
_symmetry_space_group_name_H-M   'P 1'
_cell_length_a   4.06100000
_cell_length_b   4.06100000
_cell_length_c   13.36000000
_cell_angle_alpha   90.00000000
_cell_angle_beta   90.00000000
_cell_angle_gamma   90.00000000
_symmetry_Int_Tables_number   1
_chemical_formula_structural   SrPrBi2(S2F)2
_chemical_formula_sum   'Sr1 Pr1 Bi2 S4 F2'
_cell_volume   220.32939256
_cell_formula_units_Z   1
loop_
 _symmetry_equiv_pos_site_id
 _symmetry_equiv_pos_as_xyz
  1  'x, y, z'
loop_
 _atom_type_symbol
 _atom_type_oxidation_number
  Sr2+  2.0
  Pr2+  2.0
  Bi3+  3.0
  S2-  -2.0
  F-  -1.0
loop_
 _atom_site_type_symbol
 _atom_site_label
 _atom_site_symmetry_multiplicity
 _atom_site_fract_x
 _atom_site_fract_y
 _atom_site_fract_z
 _atom_site_occupancy
  Sr2+  Pr1  1  0.75000000  0.75000000  0.88600000  0.5
  Pr2+  Pr1  1  0.75000000  0.75000000  0.88600000  0.5
  Sr2+  Pr1  1  0.25000000  0.25000000  0.11400000  0.5
  Pr2+  Pr1  1  0.25000000  0.25000000  0.11400000  0.5
  Bi3+  Bi1  1  0.75000000  0.75000000  0.37600000  1.0
  Bi3+  Bi1  1  0.25000000  0.25000000  0.62400000  1.0
  S2-  S1  1  0.75000000  0.75000000  0.63600000  1.0
  S2-  S1  1  0.25000000  0.25000000  0.36400000  1.0
  S2-  S2  1  0.75000000  0.75000000  0.19000000  1.0
  S2-  S2  1  0.25000000  0.25000000  0.81000000  1.0
  F-  F1  1  0.75000000  0.25000000  0.00000000  1.0
  F-  F1  1  0.25000000  0.75000000  0.00000000  1.0
