# generated using pymatgen
data_SrNdBi2(S2F)2
_symmetry_space_group_name_H-M   'P 1'
_cell_length_a   4.05600000
_cell_length_b   4.05600000
_cell_length_c   13.38000000
_cell_angle_alpha   90.00000000
_cell_angle_beta   90.00000000
_cell_angle_gamma   90.00000000
_symmetry_Int_Tables_number   1
_chemical_formula_structural   SrNdBi2(S2F)2
_chemical_formula_sum   'Sr1 Nd1 Bi2 S4 F2'
_cell_volume   220.11619968
_cell_formula_units_Z   1
loop_
 _symmetry_equiv_pos_site_id
 _symmetry_equiv_pos_as_xyz
  1  'x, y, z'
loop_
 _atom_type_symbol
 _atom_type_oxidation_number
  Sr2+  2.0
  Nd2+  2.0
  Bi3+  3.0
  S2-  -2.0
  F-  -1.0
loop_
 _atom_site_type_symbol
 _atom_site_label
 _atom_site_symmetry_multiplicity
 _atom_site_fract_x
 _atom_site_fract_y
 _atom_site_fract_z
 _atom_site_occupancy
  Sr2+  Nd1  1  0.75000000  0.75000000  0.89100000  0.5
  Nd2+  Nd1  1  0.75000000  0.75000000  0.89100000  0.5
  Sr2+  Nd1  1  0.25000000  0.25000000  0.10900000  0.5
  Nd2+  Nd1  1  0.25000000  0.25000000  0.10900000  0.5
  Bi3+  Bi1  1  0.75000000  0.75000000  0.37600000  1.0
  Bi3+  Bi1  1  0.25000000  0.25000000  0.62400000  1.0
  S2-  S1  1  0.75000000  0.75000000  0.61900000  1.0
  S2-  S1  1  0.25000000  0.25000000  0.38100000  1.0
  S2-  S2  1  0.75000000  0.75000000  0.18800000  1.0
  S2-  S2  1  0.25000000  0.25000000  0.81200000  1.0
  F-  F1  1  0.75000000  0.25000000  0.00000000  1.0
  F-  F1  1  0.25000000  0.75000000  0.00000000  1.0
