# generated using pymatgen
data_Ge3.944Rh4
_symmetry_space_group_name_H-M   'P 1'
_cell_length_a   4.85956100
_cell_length_b   4.85956100
_cell_length_c   4.85956100
_cell_angle_alpha   90.00000000
_cell_angle_beta   90.00000000
_cell_angle_gamma   90.00000000
_symmetry_Int_Tables_number   1
_chemical_formula_structural   Ge3.944Rh4
_chemical_formula_sum   'Ge3.944 Rh4'
_cell_volume   114.76015180
_cell_formula_units_Z   1
loop_
 _symmetry_equiv_pos_site_id
 _symmetry_equiv_pos_as_xyz
  1  'x, y, z'
loop_
 _atom_type_symbol
 _atom_type_oxidation_number
  Ge0+  0.0
  Rh0+  0.0
loop_
 _atom_site_type_symbol
 _atom_site_label
 _atom_site_symmetry_multiplicity
 _atom_site_fract_x
 _atom_site_fract_y
 _atom_site_fract_z
 _atom_site_occupancy
  Ge0+  Ge1  1  0.66652000  0.16652000  0.33348000  0.986
  Ge0+  Ge1  1  0.16652000  0.33348000  0.66652000  0.986
  Ge0+  Ge1  1  0.33348000  0.66652000  0.16652000  0.986
  Ge0+  Ge1  1  0.83348000  0.83348000  0.83348000  0.986
  Rh0+  Rh1  1  0.37180000  0.87180000  0.62820000  1.0
  Rh0+  Rh1  1  0.87180000  0.62820000  0.37180000  1.0
  Rh0+  Rh1  1  0.62820000  0.37180000  0.87180000  1.0
  Rh0+  Rh1  1  0.12820000  0.12820000  0.12820000  1.0
