# generated using pymatgen
data_Ce2Bi2S4O0.68F1.32
_symmetry_space_group_name_H-M   'P 1'
_cell_length_a   4.03000000
_cell_length_b   4.03000000
_cell_length_c   13.33600000
_cell_angle_alpha   90.00000000
_cell_angle_beta   90.00000000
_cell_angle_gamma   90.00000000
_symmetry_Int_Tables_number   1
_chemical_formula_structural   Ce2Bi2S4O0.68F1.32
_chemical_formula_sum   'Ce2 Bi2 S4 O0.68 F1.32'
_cell_volume   216.58864240
_cell_formula_units_Z   1
loop_
 _symmetry_equiv_pos_site_id
 _symmetry_equiv_pos_as_xyz
  1  'x, y, z'
loop_
 _atom_type_symbol
 _atom_type_oxidation_number
  Ce3+  3.0
  Bi2.34+  2.34
  S2-  -2.0
  O2-  -2.0
  F-  -1.0
loop_
 _atom_site_type_symbol
 _atom_site_label
 _atom_site_symmetry_multiplicity
 _atom_site_fract_x
 _atom_site_fract_y
 _atom_site_fract_z
 _atom_site_occupancy
  Ce3+  Ce1  1  0.25000000  0.25000000  0.59930000  1.0
  Ce3+  Ce1  1  0.75000000  0.75000000  0.40070000  1.0
  Bi2.34+  Bi1  1  0.75000000  0.75000000  0.87705000  1.0
  Bi2.34+  Bi1  1  0.25000000  0.25000000  0.12295000  1.0
  S2-  S1  1  0.25000000  0.25000000  0.87630000  1.0
  S2-  S1  1  0.75000000  0.75000000  0.12370000  1.0
  S2-  S2  1  0.75000000  0.75000000  0.68680000  1.0
  S2-  S2  1  0.25000000  0.25000000  0.31320000  1.0
  O2-  F1  1  0.75000000  0.25000000  0.50000000  0.34
  F-  F1  1  0.75000000  0.25000000  0.50000000  0.66
  O2-  F1  1  0.25000000  0.75000000  0.50000000  0.34
  F-  F1  1  0.25000000  0.75000000  0.50000000  0.66
