# generated using pymatgen
data_ZrNCl
_symmetry_space_group_name_H-M   'P 1'
_cell_length_a   3.60589000
_cell_length_b   3.60589000
_cell_length_c   27.67640000
_cell_angle_alpha   90.00000000
_cell_angle_beta   90.00000000
_cell_angle_gamma   120.00000000
_symmetry_Int_Tables_number   1
_chemical_formula_structural   ZrNCl
_chemical_formula_sum   'Zr6 N6 Cl6'
_cell_volume   311.64859889
_cell_formula_units_Z   6
loop_
 _symmetry_equiv_pos_site_id
 _symmetry_equiv_pos_as_xyz
  1  'x, y, z'
loop_
 _atom_type_symbol
 _atom_type_oxidation_number
  Zr4+  4.0
  N3-  -3.0
  Cl-  -1.0
loop_
 _atom_site_type_symbol
 _atom_site_label
 _atom_site_symmetry_multiplicity
 _atom_site_fract_x
 _atom_site_fract_y
 _atom_site_fract_z
 _atom_site_occupancy
  Zr4+  Zr1  1  0.00000000  0.00000000  0.88138000  1.0
  Zr4+  Zr1  1  0.00000000  0.00000000  0.11862000  1.0
  Zr4+  Zr1  1  0.66666667  0.33333333  0.21471333  1.0
  Zr4+  Zr1  1  0.66666667  0.33333333  0.45195333  1.0
  Zr4+  Zr1  1  0.33333333  0.66666667  0.54804667  1.0
  Zr4+  Zr1  1  0.33333333  0.66666667  0.78528667  1.0
  N3-  N1  1  0.00000000  0.00000000  0.78830000  1.0
  N3-  N1  1  0.00000000  0.00000000  0.21170000  1.0
  N3-  N1  1  0.66666667  0.33333333  0.12163333  1.0
  N3-  N1  1  0.66666667  0.33333333  0.54503333  1.0
  N3-  N1  1  0.33333333  0.66666667  0.45496667  1.0
  N3-  N1  1  0.33333333  0.66666667  0.87836667  1.0
  Cl-  Cl1  1  0.00000000  0.00000000  0.61900000  1.0
  Cl-  Cl1  1  0.00000000  0.00000000  0.38100000  1.0
  Cl-  Cl1  1  0.66666667  0.33333333  0.95233333  1.0
  Cl-  Cl1  1  0.66666667  0.33333333  0.71433333  1.0
  Cl-  Cl1  1  0.33333333  0.66666667  0.28566667  1.0
  Cl-  Cl1  1  0.33333333  0.66666667  0.04766667  1.0
