# generated using pymatgen
data_Cs1.542Fe4Se3.92
_symmetry_space_group_name_H-M   'P 1'
_cell_length_a   3.96010000
_cell_length_b   3.96010000
_cell_length_c   15.28460000
_cell_angle_alpha   90.00000000
_cell_angle_beta   90.00000000
_cell_angle_gamma   90.00000000
_symmetry_Int_Tables_number   1
_chemical_formula_structural   Cs1.542Fe4Se3.92
_chemical_formula_sum   'Cs1.542 Fe4 Se3.92'
_cell_volume   239.69908892
_cell_formula_units_Z   1
loop_
 _symmetry_equiv_pos_site_id
 _symmetry_equiv_pos_as_xyz
  1  'x, y, z'
loop_
 _atom_type_symbol
 _atom_type_oxidation_number
  Cs+  1.0
  Fe1.58+  1.58
  Se2-  -2.0
loop_
 _atom_site_type_symbol
 _atom_site_label
 _atom_site_symmetry_multiplicity
 _atom_site_fract_x
 _atom_site_fract_y
 _atom_site_fract_z
 _atom_site_occupancy
  Cs+  Cs1  1  0.00000000  0.00000000  0.00000000  0.771
  Cs+  Cs1  1  0.50000000  0.50000000  0.50000000  0.771
  Fe1.58+  Fe1  1  0.50000000  0.00000000  0.75000000  1.0
  Fe1.58+  Fe1  1  0.00000000  0.50000000  0.75000000  1.0
  Fe1.58+  Fe1  1  0.50000000  0.00000000  0.25000000  1.0
  Fe1.58+  Fe1  1  0.00000000  0.50000000  0.25000000  1.0
  Se2-  Se1  1  0.00000000  0.00000000  0.65610000  0.98
  Se2-  Se1  1  0.00000000  0.00000000  0.34390000  0.98
  Se2-  Se1  1  0.50000000  0.50000000  0.15610000  0.98
  Se2-  Se1  1  0.50000000  0.50000000  0.84390000  0.98
