# generated using pymatgen
data_Sr2Y1Fe1.01Cu1.99O7.6
_symmetry_space_group_name_H-M   'P 1'
_cell_length_a   3.81930000
_cell_length_b   3.81930000
_cell_length_c   11.36020000
_cell_angle_alpha   90.00000000
_cell_angle_beta   90.00000000
_cell_angle_gamma   90.00000000
_symmetry_Int_Tables_number   1
_chemical_formula_structural   Sr2Y1Fe1.01Cu1.99O7.6
_chemical_formula_sum   'Sr2 Y1 Fe1.01 Cu1.99 O7.6'
_cell_volume   165.71183370
_cell_formula_units_Z   1
loop_
 _symmetry_equiv_pos_site_id
 _symmetry_equiv_pos_as_xyz
  1  'x, y, z'
loop_
 _atom_type_symbol
 _atom_type_oxidation_number
  Sr2+  2.0
  Y3+  3.0
  Fe2.73+  2.733
  Cu2.73+  2.733
  O2-  -2.0
loop_
 _atom_site_type_symbol
 _atom_site_label
 _atom_site_symmetry_multiplicity
 _atom_site_fract_x
 _atom_site_fract_y
 _atom_site_fract_z
 _atom_site_occupancy
  Sr2+  Sr1  1  0.50000000  0.50000000  0.82100000  1.0
  Sr2+  Sr1  1  0.50000000  0.50000000  0.17900000  1.0
  Y3+  Y1  1  0.50000000  0.50000000  0.50000000  1.0
  Fe2.73+  Fe1  1  0.00000000  0.00000000  0.00000000  0.59
  Cu2.73+  Fe1  1  0.00000000  0.00000000  0.00000000  0.41
  Fe2.73+  Fe2  1  0.00000000  0.00000000  0.65270000  0.21
  Cu2.73+  Fe2  1  0.00000000  0.00000000  0.65270000  0.79
  Fe2.73+  Fe2  1  0.00000000  0.00000000  0.34730000  0.21
  Cu2.73+  Fe2  1  0.00000000  0.00000000  0.34730000  0.79
  O2-  O2  1  0.00000000  0.00000000  0.83690000  1.0
  O2-  O2  1  0.00000000  0.00000000  0.16310000  1.0
  O2-  O3  1  0.50000000  0.00000000  0.62750000  1.0
  O2-  O3  1  0.00000000  0.50000000  0.62750000  1.0
  O2-  O3  1  0.50000000  0.00000000  0.37250000  1.0
  O2-  O3  1  0.00000000  0.50000000  0.37250000  1.0
  O2-  O1  1  0.50000000  0.07100000  0.00000000  0.4
  O2-  O1  1  0.50000000  0.92900000  0.00000000  0.4
  O2-  O1  1  0.92900000  0.50000000  0.00000000  0.4
  O2-  O1  1  0.07100000  0.50000000  0.00000000  0.4
