# generated using pymatgen
data_K1.584Fe4Se3.92
_symmetry_space_group_name_H-M   'P 1'
_cell_length_a   3.90920000
_cell_length_b   3.90920000
_cell_length_c   14.13530000
_cell_angle_alpha   90.00000000
_cell_angle_beta   90.00000000
_cell_angle_gamma   90.00000000
_symmetry_Int_Tables_number   1
_chemical_formula_structural   K1.584Fe4Se3.92
_chemical_formula_sum   'K1.584 Fe4 Se3.92'
_cell_volume   216.01345854
_cell_formula_units_Z   1
loop_
 _symmetry_equiv_pos_site_id
 _symmetry_equiv_pos_as_xyz
  1  'x, y, z'
loop_
 _atom_type_symbol
 _atom_type_oxidation_number
  K+  1.0
  Fe1.56+  1.56
  Se2-  -2.0
loop_
 _atom_site_type_symbol
 _atom_site_label
 _atom_site_symmetry_multiplicity
 _atom_site_fract_x
 _atom_site_fract_y
 _atom_site_fract_z
 _atom_site_occupancy
  K+  K1  1  0.00000000  0.00000000  0.00000000  0.792
  K+  K1  1  0.50000000  0.50000000  0.50000000  0.792
  Fe1.56+  Fe1  1  0.50000000  0.00000000  0.75000000  1.0
  Fe1.56+  Fe1  1  0.00000000  0.50000000  0.75000000  1.0
  Fe1.56+  Fe1  1  0.50000000  0.00000000  0.25000000  1.0
  Fe1.56+  Fe1  1  0.00000000  0.50000000  0.25000000  1.0
  Se2-  Se1  1  0.00000000  0.00000000  0.64970000  0.98
  Se2-  Se1  1  0.00000000  0.00000000  0.35030000  0.98
  Se2-  Se1  1  0.50000000  0.50000000  0.14970000  0.98
  Se2-  Se1  1  0.50000000  0.50000000  0.85030000  0.98
