# generated using pymatgen
data_Na(SnAs)2
_symmetry_space_group_name_H-M   'P 1'
_cell_length_a   4.00600000
_cell_length_b   4.00600000
_cell_length_c   27.58100000
_cell_angle_alpha   90.00000000
_cell_angle_beta   90.00000000
_cell_angle_gamma   120.00000000
_symmetry_Int_Tables_number   1
_chemical_formula_structural   Na(SnAs)2
_chemical_formula_sum   'Na3 Sn6 As6'
_cell_volume   383.32092712
_cell_formula_units_Z   3
loop_
 _symmetry_equiv_pos_site_id
 _symmetry_equiv_pos_as_xyz
  1  'x, y, z'
loop_
 _atom_type_symbol
 _atom_type_oxidation_number
  Na+  1.0
  Sn2+  2.0
  As2.50-  -2.5
loop_
 _atom_site_type_symbol
 _atom_site_label
 _atom_site_symmetry_multiplicity
 _atom_site_fract_x
 _atom_site_fract_y
 _atom_site_fract_z
 _atom_site_occupancy
  Na+  Na1  1  0.00000000  0.00000000  0.00000000  1.0
  Na+  Na1  1  0.66666667  0.33333333  0.33333333  1.0
  Na+  Na1  1  0.33333333  0.66666667  0.66666667  1.0
  Sn2+  Sn1  1  0.00000000  0.00000000  0.78970000  1.0
  Sn2+  Sn1  1  0.00000000  0.00000000  0.21030000  1.0
  Sn2+  Sn1  1  0.66666667  0.33333333  0.12303333  1.0
  Sn2+  Sn1  1  0.66666667  0.33333333  0.54363333  1.0
  Sn2+  Sn1  1  0.33333333  0.66666667  0.45636667  1.0
  Sn2+  Sn1  1  0.33333333  0.66666667  0.87696667  1.0
  As2.50-  As1  1  0.00000000  0.00000000  0.59260000  1.0
  As2.50-  As1  1  0.00000000  0.00000000  0.40740000  1.0
  As2.50-  As1  1  0.66666667  0.33333333  0.92593333  1.0
  As2.50-  As1  1  0.66666667  0.33333333  0.74073333  1.0
  As2.50-  As1  1  0.33333333  0.66666667  0.25926667  1.0
  As2.50-  As1  1  0.33333333  0.66666667  0.07406667  1.0
