# generated using pymatgen
data_Li1.16Nb2O4
_symmetry_space_group_name_H-M   'P 1'
_cell_length_a   2.91200000
_cell_length_b   2.91200000
_cell_length_c   10.46000000
_cell_angle_alpha   90.00000000
_cell_angle_beta   90.00000000
_cell_angle_gamma   120.00000000
_symmetry_Int_Tables_number   1
_chemical_formula_structural   Li1.16Nb2O4
_chemical_formula_sum   'Li1.16 Nb2 O4'
_cell_volume   76.81482713
_cell_formula_units_Z   1
loop_
 _symmetry_equiv_pos_site_id
 _symmetry_equiv_pos_as_xyz
  1  'x, y, z'
loop_
 _atom_type_symbol
 _atom_type_oxidation_number
  Li+  1.0
  Nb3.42+  3.42
  O2-  -2.0
loop_
 _atom_site_type_symbol
 _atom_site_label
 _atom_site_symmetry_multiplicity
 _atom_site_fract_x
 _atom_site_fract_y
 _atom_site_fract_z
 _atom_site_occupancy
  Li+  Li1  1  0.00000000  0.00000000  0.50000000  0.58
  Li+  Li1  1  0.00000000  0.00000000  0.00000000  0.58
  Nb3.42+  Nb1  1  0.66666667  0.33333333  0.25000000  1.0
  Nb3.42+  Nb1  1  0.33333333  0.66666667  0.75000000  1.0
  O2-  O1  1  0.33333333  0.66666667  0.36700000  1.0
  O2-  O1  1  0.66666667  0.33333333  0.63300000  1.0
  O2-  O1  1  0.66666667  0.33333333  0.86700000  1.0
  O2-  O1  1  0.33333333  0.66666667  0.13300000  1.0
