# generated using pymatgen
data_Ca(FeAs)2
_symmetry_space_group_name_H-M   'P 1'
_cell_length_a   3.88315167
_cell_length_b   3.88315167
_cell_length_c   11.80238784
_cell_angle_alpha   90.00000000
_cell_angle_beta   90.00000000
_cell_angle_gamma   90.00000000
_symmetry_Int_Tables_number   1
_chemical_formula_structural   Ca(FeAs)2
_chemical_formula_sum   'Ca2 Fe4 As4'
_cell_volume   177.96663525
_cell_formula_units_Z   2
loop_
 _symmetry_equiv_pos_site_id
 _symmetry_equiv_pos_as_xyz
  1  'x, y, z'
loop_
 _atom_type_symbol
 _atom_type_oxidation_number
  Ca2+  2.0
  Fe2+  2.0
  As3-  -3.0
loop_
 _atom_site_type_symbol
 _atom_site_label
 _atom_site_symmetry_multiplicity
 _atom_site_fract_x
 _atom_site_fract_y
 _atom_site_fract_z
 _atom_site_occupancy
  Ca2+  Ca0  1  0.00000000  0.00000000  0.00000000  1.0
  Ca2+  Ca1  1  0.50000000  0.50000000  0.50000000  1.0
  Fe2+  Fe2  1  0.50000000  0.00000000  0.25000000  1.0
  Fe2+  Fe3  1  0.00000000  0.50000000  0.25000000  1.0
  Fe2+  Fe4  1  0.00000000  0.50000000  0.75000000  1.0
  Fe2+  Fe5  1  0.50000000  0.00000000  0.75000000  1.0
  As3-  As6  1  0.00000000  0.00000000  0.37623328  1.0
  As3-  As7  1  0.50000000  0.50000000  0.12376672  1.0
  As3-  As8  1  0.50000000  0.50000000  0.87623328  1.0
  As3-  As9  1  0.00000000  0.00000000  0.62376672  1.0
