# generated using pymatgen
data_La3Co4Sn13
_symmetry_space_group_name_H-M   'P 1'
_cell_length_a   9.63120000
_cell_length_b   9.63120000
_cell_length_c   9.63120000
_cell_angle_alpha   90.00000000
_cell_angle_beta   90.00000000
_cell_angle_gamma   90.00000000
_symmetry_Int_Tables_number   1
_chemical_formula_structural   La3Co4Sn13
_chemical_formula_sum   'La6 Co8 Sn26'
_cell_volume   893.39024144
_cell_formula_units_Z   2
loop_
 _symmetry_equiv_pos_site_id
 _symmetry_equiv_pos_as_xyz
  1  'x, y, z'
loop_
 _atom_type_symbol
 _atom_type_oxidation_number
  La0+  0.0
  Co0+  0.0
  Sn0+  0.0
loop_
 _atom_site_type_symbol
 _atom_site_label
 _atom_site_symmetry_multiplicity
 _atom_site_fract_x
 _atom_site_fract_y
 _atom_site_fract_z
 _atom_site_occupancy
  La0+  La1  1  0.50000000  0.00000000  0.75000000  1.0
  La0+  La1  1  0.00000000  0.25000000  0.50000000  1.0
  La0+  La1  1  0.75000000  0.50000000  0.00000000  1.0
  La0+  La1  1  0.50000000  0.00000000  0.25000000  1.0
  La0+  La1  1  0.00000000  0.75000000  0.50000000  1.0
  La0+  La1  1  0.25000000  0.50000000  0.00000000  1.0
  Co0+  Co1  1  0.75000000  0.25000000  0.75000000  1.0
  Co0+  Co1  1  0.25000000  0.75000000  0.25000000  1.0
  Co0+  Co1  1  0.75000000  0.75000000  0.25000000  1.0
  Co0+  Co1  1  0.25000000  0.25000000  0.75000000  1.0
  Co0+  Co1  1  0.25000000  0.75000000  0.75000000  1.0
  Co0+  Co1  1  0.75000000  0.25000000  0.25000000  1.0
  Co0+  Co1  1  0.25000000  0.25000000  0.25000000  1.0
  Co0+  Co1  1  0.75000000  0.75000000  0.75000000  1.0
  Sn0+  Sn1  1  0.50000000  0.50000000  0.50000000  1.0
  Sn0+  Sn1  1  0.00000000  0.00000000  0.00000000  1.0
  Sn0+  Sn2  1  0.65040000  0.19660000  0.50000000  1.0
  Sn0+  Sn2  1  0.80340000  0.50000000  0.65040000  1.0
  Sn0+  Sn2  1  0.50000000  0.34960000  0.80340000  1.0
  Sn0+  Sn2  1  0.34960000  0.80340000  0.50000000  1.0
  Sn0+  Sn2  1  0.19660000  0.50000000  0.34960000  1.0
  Sn0+  Sn2  1  0.50000000  0.65040000  0.19660000  1.0
  Sn0+  Sn2  1  0.65040000  0.80340000  0.50000000  1.0
  Sn0+  Sn2  1  0.80340000  0.50000000  0.34960000  1.0
  Sn0+  Sn2  1  0.34960000  0.19660000  0.50000000  1.0
  Sn0+  Sn2  1  0.19660000  0.50000000  0.65040000  1.0
  Sn0+  Sn2  1  0.50000000  0.65040000  0.80340000  1.0
  Sn0+  Sn2  1  0.50000000  0.34960000  0.19660000  1.0
  Sn0+  Sn2  1  0.15040000  0.00000000  0.69660000  1.0
  Sn0+  Sn2  1  0.30340000  0.15040000  0.00000000  1.0
  Sn0+  Sn2  1  0.00000000  0.30340000  0.84960000  1.0
  Sn0+  Sn2  1  0.84960000  0.00000000  0.30340000  1.0
  Sn0+  Sn2  1  0.69660000  0.84960000  0.00000000  1.0
  Sn0+  Sn2  1  0.00000000  0.69660000  0.15040000  1.0
  Sn0+  Sn2  1  0.15040000  0.00000000  0.30340000  1.0
  Sn0+  Sn2  1  0.30340000  0.84960000  0.00000000  1.0
  Sn0+  Sn2  1  0.84960000  0.00000000  0.69660000  1.0
  Sn0+  Sn2  1  0.69660000  0.15040000  0.00000000  1.0
  Sn0+  Sn2  1  0.00000000  0.30340000  0.15040000  1.0
  Sn0+  Sn2  1  0.00000000  0.69660000  0.84960000  1.0
